No_5115
     RDKit          3D

 26 28  0  0  1  0  0  0  0  0999 V2000
  -44.1360   79.5090  -45.5158 C   0  0  0  0  0  0  0  0  0  0  0  0
  -42.9581   79.1477  -46.3931 C   0  0  0  0  0  0  0  0  0  0  0  0
  -43.1319   79.0021  -47.7795 C   0  0  0  0  0  0  0  0  0  0  0  0
  -42.0059   78.7291  -48.5706 C   0  0  0  0  0  0  0  0  0  0  0  0
  -40.7684   78.6006  -48.0596 N   0  0  0  0  0  0  0  0  0  0  0  0
  -40.5843   78.7283  -46.7235 C   0  0  0  0  0  0  0  0  0  0  0  0
  -39.3170   78.6026  -46.1052 N   0  0  0  0  0  0  0  0  0  0  0  0
  -38.1134   78.6639  -46.6995 C   0  0  0  0  0  0  0  0  0  0  0  0
  -37.9264   78.9516  -47.8840 O   0  0  0  0  0  0  0  0  0  0  0  0
  -36.9667   78.5622  -45.7892 C   0  0  0  0  0  0  0  0  0  0  0  0
  -35.8369   79.2921  -46.0512 N   0  0  0  0  0  0  0  0  0  0  0  0
  -34.9342   79.1526  -45.0292 C   0  0  0  0  0  0  0  0  0  0  0  0
  -33.7954   79.8839  -45.1198 O   0  0  0  0  0  0  0  0  0  0  0  0
  -32.9313   79.9560  -43.9989 C   0  0  0  0  0  0  0  0  0  0  0  0
  -33.4647   80.9316  -42.9394 C   0  0  0  0  0  0  0  0  0  0  0  0
  -34.3210   81.7727  -43.2152 O   0  0  0  0  0  0  0  0  0  0  0  0
  -32.9262   80.8174  -41.7211 N   0  0  0  0  0  0  0  0  0  0  0  0
  -33.1548   81.6875  -40.5768 C   0  0  2  0  0  0  0  0  0  0  0  0
  -31.7967   82.0348  -39.9595 C   0  0  0  0  0  0  0  0  0  0  0  0
  -34.1941   81.1398  -39.5930 C   0  0  0  0  0  0  0  0  0  0  0  0
  -33.8365   80.3373  -38.3601 C   0  0  0  0  0  0  0  0  0  0  0  0
  -34.4094   81.7315  -38.2154 C   0  0  0  0  0  0  0  0  0  0  0  0
  -35.4618   78.2691  -44.1060 C   0  0  0  0  0  0  0  0  0  0  0  0
  -34.9387   77.7986  -42.7717 C   0  0  0  0  0  0  0  0  0  0  0  0
  -36.7237   77.8585  -44.6429 C   0  0  0  0  0  0  0  0  0  0  0  0
  -41.6644   79.0027  -45.8565 C   0  0  0  0  0  0  0  0  0  0  0  0
  1  2  1  0
  2  3  2  0
  2 26  1  0
  3  4  1  0
  4  5  2  0
  5  6  1  0
  6  7  1  0
  6 26  2  0
  7  8  1  0
  8  9  2  0
  8 10  1  0
 10 11  1  0
 10 25  2  0
 11 12  1  0
 12 13  1  0
 12 23  2  0
 13 14  1  0
 14 15  1  0
 15 16  2  0
 15 17  1  0
 17 18  1  0
 18 19  1  1
 18 20  1  0
 20 21  1  0
 20 22  1  0
 21 22  1  0
 23 24  1  0
 23 25  1  0
M  END
>  <cluster>  (1) 
cluster_126463

>  <glide_score>  (1) 
-6.62507139031482

>  <mmgbsa_dG>  (1) 
-57.1671234539244

$$$$
No_1361
     RDKit          3D

 25 27  0  0  1  0  0  0  0  0999 V2000
  -34.4194   81.7845  -43.3554 O   0  0  0  0  0  0  0  0  0  0  0  0
  -33.6476   80.8733  -43.0438 C   0  0  0  0  0  0  0  0  0  0  0  0
  -33.1352   80.7008  -41.8198 N   0  0  0  0  0  0  0  0  0  0  0  0
  -33.2813   81.5981  -40.6802 C   0  0  0  0  0  0  0  0  0  0  0  0
  -34.2710   81.1231  -39.6406 C   0  0  0  0  0  0  0  0  0  0  0  0
  -33.8083   80.4593  -38.3641 C   0  0  0  0  0  0  0  0  0  0  0  0
  -34.4007   81.8468  -38.3216 C   0  0  0  0  0  0  0  0  0  0  0  0
  -33.1767   79.9538  -43.8935 N   0  0  0  0  0  0  0  0  0  0  0  0
  -33.3443   79.9496  -45.3427 C   0  0  0  0  0  0  0  0  0  0  0  0
  -33.9364   78.6237  -45.8465 C   0  0  0  0  0  0  0  0  0  0  0  0
  -35.4529   78.6431  -45.8873 C   0  0  0  0  0  0  0  0  0  0  0  0
  -36.1552   79.0345  -46.9689 C   0  0  0  0  0  0  0  0  0  0  0  0
  -37.5419   79.0520  -46.9921 N   0  0  0  0  0  0  0  0  0  0  0  0
  -38.1925   78.6529  -45.9426 C   0  0  0  0  0  0  0  0  0  0  0  0
  -39.5827   78.6470  -45.8116 N   0  0  0  0  0  0  0  0  0  0  0  0
  -40.4987   78.8386  -46.7821 C   0  0  0  0  0  0  0  0  0  0  0  0
  -40.2328   78.9579  -47.9802 O   0  0  0  0  0  0  0  0  0  0  0  0
  -41.7739   78.8192  -46.3399 N   0  0  0  0  0  0  0  0  0  0  0  0
  -42.2200   79.0893  -44.9705 C   0  0  0  0  0  0  0  0  0  0  0  0
  -43.7298   79.3247  -45.0591 C   0  0  0  0  0  0  0  0  0  0  0  0
  -44.1491   78.6302  -46.3466 C   0  0  0  0  0  0  0  0  0  0  0  0
  -42.9198   78.7613  -47.2442 C   0  0  0  0  0  0  0  0  0  0  0  0
  -37.5787   78.2086  -44.7910 O   0  0  0  0  0  0  0  0  0  0  0  0
  -36.2024   78.1853  -44.6845 C   0  0  0  0  0  0  0  0  0  0  0  0
  -35.6482   77.8219  -43.6461 O   0  0  0  0  0  0  0  0  0  0  0  0
  1  2  2  0
  2  3  1  0
  2  8  1  0
  3  4  1  0
  4  5  1  0
  5  6  1  0
  5  7  1  0
  6  7  1  0
  8  9  1  0
  9 10  1  0
 10 11  1  0
 11 12  2  0
 11 24  1  0
 12 13  1  0
 13 14  2  0
 14 15  1  0
 14 23  1  0
 15 16  1  0
 16 17  2  0
 16 18  1  0
 18 19  1  0
 18 22  1  0
 19 20  1  0
 20 21  1  0
 21 22  1  0
 23 24  1  0
 24 25  2  0
M  END
>  <cluster>  (2) 
cluster_96329

>  <glide_score>  (2) 
-7.12904625010216

>  <mmgbsa_dG>  (2) 
-54.8067653999606

$$$$
No_3176
     RDKit          3D

 23 25  0  0  1  0  0  0  0  0999 V2000
  -43.0684   77.7465  -43.6385 C   0  0  0  0  0  0  0  0  0  0  0  0
  -42.4855   76.6915  -44.5878 C   0  0  0  0  0  0  0  0  0  0  0  0
  -41.2894   77.1216  -45.2960 N   0  0  0  0  0  0  0  0  0  0  0  0
  -40.6388   78.3441  -45.3098 C   0  0  0  0  0  0  0  0  0  0  0  0
  -39.5480   78.2193  -46.1291 C   0  0  0  0  0  0  0  0  0  0  0  0
  -38.4596   79.2118  -46.4440 C   0  0  1  0  0  0  0  0  0  0  0  0
  -37.1764   78.9219  -45.6608 C   0  0  0  0  0  0  0  0  0  0  0  0
  -36.0839   79.1289  -46.6130 N   0  0  2  0  0  0  0  0  0  0  0  0
  -35.3928   80.4368  -46.5237 C   0  0  0  0  0  0  0  0  0  0  0  0
  -34.6618   80.5958  -45.1973 C   0  0  0  0  0  0  0  0  0  0  0  0
  -35.1830   81.4710  -44.2254 C   0  0  0  0  0  0  0  0  0  0  0  0
  -34.5275   81.5945  -42.9909 C   0  0  0  0  0  0  0  0  0  0  0  0
  -33.3553   80.8388  -42.7520 C   0  0  0  0  0  0  0  0  0  0  0  0
  -32.6201   80.9321  -41.4396 C   0  0  0  0  0  0  0  0  0  0  0  0
  -33.1407   81.7522  -40.5209 N   0  0  0  0  0  0  0  0  0  0  0  0
  -31.5891   80.2836  -41.2374 O   0  0  0  0  0  0  0  0  0  0  0  0
  -32.8453   80.0002  -43.6877 N   0  0  0  0  0  0  0  0  0  0  0  0
  -33.4774   79.8854  -44.8768 C   0  0  0  0  0  0  0  0  0  0  0  0
  -32.8122   78.9459  -45.8662 C   0  0  0  0  0  0  0  0  0  0  0  0
  -36.7589   78.8497  -48.0095 C   0  0  0  0  0  0  0  0  0  0  0  0
  -38.0939   79.2154  -47.8247 O   0  0  0  0  0  0  0  0  0  0  0  0
  -39.6454   76.8818  -46.6046 C   0  0  0  0  0  0  0  0  0  0  0  0
  -40.6680   76.2267  -46.0916 N   0  0  0  0  0  0  0  0  0  0  0  0
  1  2  1  0
  2  3  1  0
  3  4  1  0
  3 23  1  0
  4  5  2  0
  6  5  1  6
  5 22  1  0
  6  7  1  0
  6 21  1  0
  7  8  1  0
  8  9  1  6
  8 20  1  0
  9 10  1  0
 10 11  2  0
 10 18  1  0
 11 12  1  0
 12 13  2  0
 13 14  1  0
 13 17  1  0
 14 15  1  0
 14 16  2  0
 17 18  2  0
 18 19  1  0
 20 21  1  0
 22 23  2  0
M  CHG  1   8   1
M  END
>  <cluster>  (3) 
cluster_13728

>  <glide_score>  (3) 
-6.59113619300619

>  <mmgbsa_dG>  (3) 
-53.4250028707174

$$$$
No_3986
     RDKit          3D

 26 29  0  0  1  0  0  0  0  0999 V2000
  -33.2954   79.7065  -40.9443 C   0  0  0  0  0  0  0  0  0  0  0  0
  -33.9403   79.5367  -42.3046 C   0  0  0  0  0  0  0  0  0  0  0  0
  -34.5161   78.3110  -42.6701 C   0  0  0  0  0  0  0  0  0  0  0  0
  -35.0733   78.1567  -43.9511 C   0  0  0  0  0  0  0  0  0  0  0  0
  -35.1092   79.2222  -44.8834 C   0  0  0  0  0  0  0  0  0  0  0  0
  -35.7899   79.0212  -46.1104 N   0  0  0  0  0  0  0  0  0  0  0  0
  -35.2918   79.4177  -47.4234 C   0  0  0  0  0  0  0  0  0  0  0  0
  -36.4434   80.0354  -48.2418 C   0  0  0  0  0  0  0  0  0  0  0  0
  -37.5435   79.1251  -48.3031 O   0  0  0  0  0  0  0  0  0  0  0  0
  -38.0564   78.7937  -47.0120 C   0  0  1  0  0  0  0  0  0  0  0  0
  -39.2673   77.8659  -47.1816 C   0  0  0  0  0  0  0  0  0  0  0  0
  -39.1512   76.7711  -47.7341 O   0  0  0  0  0  0  0  0  0  0  0  0
  -40.4304   78.3256  -46.7046 N   0  0  0  0  0  0  0  0  0  0  0  0
  -41.7189   77.6849  -46.8151 C   0  0  0  0  0  0  0  0  0  0  0  0
  -42.8611   78.6508  -46.6109 C   0  0  0  0  0  0  0  0  0  0  0  0
  -43.6949   78.5850  -45.4796 C   0  0  0  0  0  0  0  0  0  0  0  0
  -44.7231   79.5395  -45.3429 C   0  0  0  0  0  0  0  0  0  0  0  0
  -44.9648   80.5032  -46.2614 N   0  0  0  0  0  0  0  0  0  0  0  0
  -44.2047   80.4952  -47.3748 C   0  0  0  0  0  0  0  0  0  0  0  0
  -43.1134   79.6407  -47.5727 C   0  0  0  0  0  0  0  0  0  0  0  0
  -36.9371   78.1255  -46.1897 C   0  0  0  0  0  0  0  0  0  0  0  0
  -34.5133   80.4676  -44.5159 C   0  0  0  0  0  0  0  0  0  0  0  0
  -34.5849   81.6854  -45.4105 C   0  0  0  0  0  0  0  0  0  0  0  0
  -33.9171   83.0190  -45.1189 C   0  0  0  0  0  0  0  0  0  0  0  0
  -33.3804   82.1277  -46.2128 C   0  0  0  0  0  0  0  0  0  0  0  0
  -33.9341   80.5971  -43.2280 C   0  0  0  0  0  0  0  0  0  0  0  0
  1  2  1  0
  2  3  2  0
  2 26  1  0
  3  4  1  0
  4  5  2  0
  5  6  1  0
  5 22  1  0
  6  7  1  0
  6 21  1  0
  7  8  1  0
  8  9  1  0
  9 10  1  0
 10 11  1  6
 10 21  1  0
 11 12  2  0
 11 13  1  0
 13 14  1  0
 14 15  1  0
 15 16  2  0
 15 20  1  0
 16 17  1  0
 17 18  2  0
 18 19  1  0
 19 20  2  0
 22 23  1  0
 22 26  2  0
 23 24  1  0
 23 25  1  0
 24 25  1  0
M  END
>  <cluster>  (4) 
cluster_72574

>  <glide_score>  (4) 
-6.87435470971815

>  <mmgbsa_dG>  (4) 
-53.0094708290417

$$$$
No_3994
     RDKit          3D

 22 23  0  0  1  0  0  0  0  0999 V2000
  -36.5780   79.8034  -42.0645 C   0  0  0  0  0  0  0  0  0  0  0  0
  -35.6245   78.6861  -41.6098 C   0  0  0  0  0  0  0  0  0  0  0  0
  -35.6187   77.3964  -42.4894 C   0  0  1  0  0  0  0  0  0  0  0  0
  -35.3898   77.6943  -43.9940 C   0  0  0  0  0  0  0  0  0  0  0  0
  -36.6321   78.1296  -44.6238 N   0  0  0  0  0  0  0  0  0  0  0  0
  -36.7512   78.7710  -45.7905 C   0  0  0  0  0  0  0  0  0  0  0  0
  -35.8020   79.2929  -46.3713 O   0  0  0  0  0  0  0  0  0  0  0  0
  -38.1079   78.7316  -46.3713 C   0  0  0  0  0  0  0  0  0  0  0  0
  -39.3392   78.5674  -45.7869 C   0  0  0  0  0  0  0  0  0  0  0  0
  -40.4154   78.6168  -46.7206 C   0  0  0  0  0  0  0  0  0  0  0  0
  -39.9918   78.8180  -48.0072 C   0  0  0  0  0  0  0  0  0  0  0  0
  -38.2550   78.9484  -48.0995 S   0  0  0  0  0  0  0  0  0  0  0  0
  -34.6918   76.3426  -41.9532 N   0  0  2  0  0  0  0  0  0  0  0  0
  -35.1181   75.8378  -40.6127 C   0  0  0  0  0  0  0  0  0  0  0  0
  -34.9798   74.3454  -40.4672 C   0  0  0  0  0  0  0  0  0  0  0  0
  -36.0936   73.4846  -40.2156 C   0  0  0  0  0  0  0  0  0  0  0  0
  -35.7437   72.1700  -40.0630 C   0  0  0  0  0  0  0  0  0  0  0  0
  -34.0348   71.9341  -40.2580 S   0  0  0  0  0  0  0  0  0  0  0  0
  -33.8077   73.6351  -40.5508 C   0  0  0  0  0  0  0  0  0  0  0  0
  -33.2295   76.6548  -42.0228 C   0  0  0  0  0  0  0  0  0  0  0  0
  -32.5268   76.1005  -43.2788 C   0  0  0  0  0  0  0  0  0  0  0  0
  -32.5342   74.6884  -43.3005 O   0  0  0  0  0  0  0  0  0  0  0  0
  1  2  1  0
  3  2  1  1
  3  4  1  0
  3 13  1  0
  4  5  1  0
  5  6  1  0
  6  7  2  0
  6  8  1  0
  8  9  2  0
  8 12  1  0
  9 10  1  0
 10 11  2  0
 11 12  1  0
 13 14  1  1
 13 20  1  0
 14 15  1  0
 15 16  1  0
 15 19  2  0
 16 17  2  0
 17 18  1  0
 18 19  1  0
 20 21  1  0
 21 22  1  0
M  CHG  1  13   1
M  END
>  <cluster>  (5) 
cluster_114790

>  <glide_score>  (5) 
-7.31356393921785

>  <mmgbsa_dG>  (5) 
-51.9091975595657

$$$$
No_2334
     RDKit          3D

 27 29  0  0  1  0  0  0  0  0999 V2000
  -43.1747   78.5065  -46.4152 C   0  0  0  0  0  0  0  0  0  0  0  0
  -41.8919   79.0049  -45.9355 N   0  0  0  0  0  0  0  0  0  0  0  0
  -41.8528   80.2635  -45.2095 C   0  0  0  0  0  0  0  0  0  0  0  0
  -40.7392   78.6503  -46.6583 C   0  0  0  0  0  0  0  0  0  0  0  0
  -39.4457   79.2298  -46.4995 C   0  0  0  0  0  0  0  0  0  0  0  0
  -38.6396   78.5808  -47.3953 C   0  0  0  0  0  0  0  0  0  0  0  0
  -37.2820   78.8102  -47.6319 N   0  0  0  0  0  0  0  0  0  0  0  0
  -36.5514   79.8912  -46.9841 C   0  0  0  0  0  0  0  0  0  0  0  0
  -35.6248   79.4104  -45.8441 C   0  0  1  0  0  0  0  0  0  0  0  0
  -34.4526   78.5757  -46.4214 C   0  0  0  0  0  0  0  0  0  0  0  0
  -33.6747   77.8740  -45.4022 N   0  0  0  0  0  0  0  0  0  0  0  0
  -32.9191   78.4491  -44.4594 C   0  0  0  0  0  0  0  0  0  0  0  0
  -32.2674   77.7933  -43.6494 O   0  0  0  0  0  0  0  0  0  0  0  0
  -32.9322   79.9718  -44.3804 C   0  0  0  0  0  0  0  0  0  0  0  0
  -34.2594   80.4366  -43.9036 N   0  0  1  0  0  0  0  0  0  0  0  0
  -34.1911   81.6113  -42.9889 C   0  0  0  0  0  0  0  0  0  0  0  0
  -33.9334   81.2683  -41.5163 C   0  0  0  0  0  0  0  0  0  0  0  0
  -32.7544   80.6245  -41.0698 C   0  0  0  0  0  0  0  0  0  0  0  0
  -32.5710   80.2846  -39.7167 C   0  0  0  0  0  0  0  0  0  0  0  0
  -33.5873   80.5511  -38.7873 C   0  0  0  0  0  0  0  0  0  0  0  0
  -34.7697   81.1676  -39.2232 C   0  0  0  0  0  0  0  0  0  0  0  0
  -34.9469   81.5288  -40.5690 C   0  0  0  0  0  0  0  0  0  0  0  0
  -36.1166   82.0951  -40.9508 F   0  0  0  0  0  0  0  0  0  0  0  0
  -35.1980   80.6685  -45.0388 C   0  0  0  0  0  0  0  0  0  0  0  0
  -39.3744   77.6364  -48.0922 N   0  0  0  0  0  0  0  0  0  0  0  0
  -38.8864   76.7604  -49.1385 C   0  0  0  0  0  0  0  0  0  0  0  0
  -40.6773   77.6874  -47.6288 C   0  0  0  0  0  0  0  0  0  0  0  0
  1  2  1  0
  2  3  1  0
  2  4  1  0
  4  5  1  0
  4 27  2  0
  5  6  2  0
  6  7  1  0
  6 25  1  0
  7  8  1  0
  9  8  1  6
  9 10  1  0
  9 24  1  0
 10 11  1  0
 11 12  1  0
 12 13  2  0
 12 14  1  0
 14 15  1  0
 15 16  1  6
 15 24  1  0
 16 17  1  0
 17 18  2  0
 17 22  1  0
 18 19  1  0
 19 20  2  0
 20 21  1  0
 21 22  2  0
 22 23  1  0
 25 26  1  0
 25 27  1  0
M  CHG  1  15   1
M  END
>  <cluster>  (6) 
cluster_123682

>  <glide_score>  (6) 
-6.51728455391434

>  <mmgbsa_dG>  (6) 
-51.7023808159138

$$$$
No_1280
     RDKit          3D

 22 23  0  0  1  0  0  0  0  0999 V2000
  -40.6150   76.2331  -46.8540 C   0  0  0  0  0  0  0  0  0  0  0  0
  -39.4068   76.9754  -46.7685 O   0  0  0  0  0  0  0  0  0  0  0  0
  -39.3169   78.1856  -47.4333 C   0  0  0  0  0  0  0  0  0  0  0  0
  -40.4293   78.6408  -48.0625 N   0  0  0  0  0  0  0  0  0  0  0  0
  -40.3722   79.8214  -48.7062 C   0  0  0  0  0  0  0  0  0  0  0  0
  -39.2151   80.6164  -48.7405 C   0  0  0  0  0  0  0  0  0  0  0  0
  -38.0621   80.1512  -48.0824 C   0  0  0  0  0  0  0  0  0  0  0  0
  -38.0992   78.9137  -47.4040 C   0  0  0  0  0  0  0  0  0  0  0  0
  -36.8751   78.3684  -46.7177 C   0  0  0  0  0  0  0  0  0  0  0  0
  -36.6720   77.1574  -46.6490 O   0  0  0  0  0  0  0  0  0  0  0  0
  -36.0484   79.2632  -46.1580 N   0  0  0  0  0  0  0  0  0  0  0  0
  -34.9296   78.9493  -45.2625 C   0  0  2  0  0  0  0  0  0  0  0  0
  -35.4481   78.3558  -43.9332 C   0  0  0  0  0  0  0  0  0  0  0  0
  -34.0997   80.2364  -45.0803 C   0  0  0  0  0  0  0  0  0  0  0  0
  -32.8923   80.1633  -44.1123 C   0  0  0  0  0  0  0  0  0  0  0  0
  -33.0800   81.0454  -42.9129 C   0  0  0  0  0  0  0  0  0  0  0  0
  -32.9166   80.6755  -41.6874 N   0  0  0  0  0  0  0  0  0  0  0  0
  -33.2041   81.8129  -40.6843 C   0  0  0  0  0  0  0  0  0  0  0  0
  -33.2255   81.5530  -39.4810 O   0  0  0  0  0  0  0  0  0  0  0  0
  -33.4636   82.9387  -41.3665 N   0  0  0  0  0  0  0  0  0  0  0  0
  -33.8219   84.2120  -40.7653 C   0  0  0  0  0  0  0  0  0  0  0  0
  -33.5203   82.7658  -43.0688 S   0  0  0  0  0  0  0  0  0  0  0  0
  1  2  1  0
  2  3  1  0
  3  4  2  0
  3  8  1  0
  4  5  1  0
  5  6  2  0
  6  7  1  0
  7  8  2  0
  8  9  1  0
  9 10  2  0
  9 11  1  0
 11 12  1  0
 12 13  1  1
 12 14  1  0
 14 15  1  0
 15 16  1  0
 16 17  2  0
 16 22  1  0
 17 18  1  0
 18 19  2  0
 18 20  1  0
 20 21  1  0
 20 22  1  0
M  CHG  1  17   1
M  END
>  <cluster>  (7) 
cluster_22384

>  <glide_score>  (7) 
-7.79336098177004

>  <mmgbsa_dG>  (7) 
-51.5554197345555

$$$$
No_3062
     RDKit          3D

 25 27  0  0  1  0  0  0  0  0999 V2000
  -44.0690   79.2594  -46.1098 C   0  0  0  0  0  0  0  0  0  0  0  0
  -42.6682   79.0488  -46.5724 C   0  0  0  0  0  0  0  0  0  0  0  0
  -42.2998   79.2043  -47.8481 N   0  0  0  0  0  0  0  0  0  0  0  0
  -40.9465   78.9542  -47.8736 N   0  0  0  0  0  0  0  0  0  0  0  0
  -40.6245   78.6811  -46.6052 C   0  0  0  0  0  0  0  0  0  0  0  0
  -39.3171   78.3959  -46.1287 N   0  0  0  0  0  0  0  0  0  0  0  0
  -38.1435   78.7140  -46.7090 C   0  0  0  0  0  0  0  0  0  0  0  0
  -38.0646   79.2809  -47.7993 O   0  0  0  0  0  0  0  0  0  0  0  0
  -36.8421   78.3122  -45.9602 C   0  0  0  0  0  0  0  0  0  0  0  0
  -35.6638   79.2657  -46.2652 C   0  0  0  0  0  0  0  0  0  0  0  0
  -35.8418   80.6422  -45.5902 C   0  0  0  0  0  0  0  0  0  0  0  0
  -36.0382   80.5001  -44.1365 N   0  0  0  0  0  0  0  0  0  0  0  0
  -35.2744   81.1937  -43.2490 C   0  0  0  0  0  0  0  0  0  0  0  0
  -34.2129   81.7370  -43.5563 O   0  0  0  0  0  0  0  0  0  0  0  0
  -35.7942   81.2671  -42.0099 N   0  0  0  0  0  0  0  0  0  0  0  0
  -35.4699   82.1415  -40.9386 C   0  0  0  0  0  0  0  0  0  0  0  0
  -35.9911   81.8325  -39.6665 C   0  0  0  0  0  0  0  0  0  0  0  0
  -35.7352   82.7064  -38.5928 C   0  0  0  0  0  0  0  0  0  0  0  0
  -35.0152   83.8384  -38.7203 N   0  0  0  0  0  0  0  0  0  0  0  0
  -34.5104   84.1316  -39.9355 C   0  0  0  0  0  0  0  0  0  0  0  0
  -34.7164   83.3301  -41.0753 C   0  0  0  0  0  0  0  0  0  0  0  0
  -37.1730   79.6139  -43.7990 C   0  0  0  0  0  0  0  0  0  0  0  0
  -36.9865   78.2204  -44.4222 C   0  0  0  0  0  0  0  0  0  0  0  0
  -41.6536   78.7230  -45.7431 N   0  0  0  0  0  0  0  0  0  0  0  0
  -41.6313   78.5193  -44.3091 C   0  0  0  0  0  0  0  0  0  0  0  0
  1  2  1  0
  2 24  1  0
  2  3  2  0
  3  4  1  0
  4  5  2  0
  5  6  1  0
  5 24  1  0
  6  7  1  0
  7  8  2  0
  7  9  1  0
  9 10  1  0
  9 23  1  0
 10 11  1  0
 11 12  1  0
 12 13  1  0
 12 22  1  0
 13 14  2  0
 13 15  1  0
 15 16  1  0
 16 17  2  0
 16 21  1  0
 17 18  1  0
 18 19  2  0
 19 20  1  0
 20 21  2  0
 22 23  1  0
 24 25  1  0
M  END
>  <cluster>  (8) 
cluster_108582

>  <glide_score>  (8) 
-6.74334804607726

>  <mmgbsa_dG>  (8) 
-51.1614338361251

$$$$
No_2018
     RDKit          3D

 23 24  0  0  1  0  0  0  0  0999 V2000
  -36.4576   81.0515  -44.4868 C   0  0  0  0  0  0  0  0  0  0  0  0
  -36.1280   79.5872  -44.8258 C   0  0  2  0  0  0  0  0  0  0  0  0
  -35.3964   79.5646  -46.0900 N   0  0  0  0  0  0  0  0  0  0  0  0
  -34.6661   78.5538  -46.5817 C   0  0  0  0  0  0  0  0  0  0  0  0
  -34.5227   77.4829  -45.9982 O   0  0  0  0  0  0  0  0  0  0  0  0
  -34.0194   78.7823  -47.9536 C   0  0  2  0  0  0  0  0  0  0  0  0
  -33.1219   80.0351  -48.0260 C   0  0  0  0  0  0  0  0  0  0  0  0
  -33.3005   80.4597  -49.4582 C   0  0  0  0  0  0  0  0  0  0  0  0
  -32.6961   81.3826  -49.9992 O   0  0  0  0  0  0  0  0  0  0  0  0
  -34.3775   79.6099  -50.0998 C   0  0  0  0  0  0  0  0  0  0  0  0
  -35.0369   78.8850  -49.0219 N   0  0  0  0  0  0  0  0  0  0  0  0
  -37.4464   78.7965  -44.9233 C   0  0  0  0  0  0  0  0  0  0  0  0
  -37.7837   77.9840  -44.0617 O   0  0  0  0  0  0  0  0  0  0  0  0
  -38.3591   79.0783  -46.1280 C   0  0  0  0  0  0  0  0  0  0  0  0
  -39.3776   78.0594  -46.3682 N   0  0  0  0  0  0  0  0  0  0  0  0
  -38.9418   76.7542  -46.8548 C   0  0  0  0  0  0  0  0  0  0  0  0
  -40.6358   78.5170  -46.8126 C   0  0  0  0  0  0  0  0  0  0  0  0
  -41.0824   78.2407  -48.1288 C   0  0  0  0  0  0  0  0  0  0  0  0
  -42.3606   78.6419  -48.5630 C   0  0  0  0  0  0  0  0  0  0  0  0
  -43.2116   79.3361  -47.6876 C   0  0  0  0  0  0  0  0  0  0  0  0
  -42.7787   79.6331  -46.3828 C   0  0  0  0  0  0  0  0  0  0  0  0
  -41.5001   79.2340  -45.9436 C   0  0  0  0  0  0  0  0  0  0  0  0
  -41.0526   79.5856  -44.3103 Cl  0  0  0  0  0  0  0  0  0  0  0  0
  2  1  1  6
  2  3  1  0
  2 12  1  0
  3  4  1  0
  4  5  2  0
  6  4  1  1
  6  7  1  0
  6 11  1  0
  7  8  1  0
  8  9  2  0
  8 10  1  0
 10 11  1  0
 12 13  2  0
 12 14  1  0
 14 15  1  0
 15 16  1  0
 15 17  1  0
 17 18  2  0
 17 22  1  0
 18 19  1  0
 19 20  2  0
 20 21  1  0
 21 22  2  0
 22 23  1  0
M  END
>  <cluster>  (9) 
cluster_107538

>  <glide_score>  (9) 
-6.78946196196252

>  <mmgbsa_dG>  (9) 
-50.9400456860094

$$$$
